Circuit: * C:\Users\user\Desktop\GIU\ENG4\Electronics\Power-control-by-IR-remote\ltc.asc

Direct Newton iteration for .op point succeeded.

Date: Thu May 22 19:22:41 2025
Total elapsed time: 0.098 seconds.

tnom = 27
temp = 27
method = modified trap
totiter = 5492
traniter = 5445
tranpoints = 1934
accept = 1727
rejected = 207
matrix size = 22
fillins = 2
solver = Normal
Matrix Compiler1: 1.08 KB object code size  0.5/0.3/[0.1]
Matrix Compiler2: 1.54 KB object code size  0.2/0.4/[0.2]

